*Heading
 Torque and Face
** Job name: Job-1 Model name: Model-1
** Generated by: Abaqus/CAE 2018
*Preprint, echo=NO, model=NO, history=NO, contact=NO
**
** PARTS
**
*Part, name=polemount_2Jeremiah-1
*Node
      1,  -1.57480311,           0.,   5.31496048
      2,   1.57480311,           0.,   5.31496048
      3,   1.24245179,  -2.75590563,   3.70837593
      4,    1.2818563,  -3.06154013,   3.54628038
      5,   1.26297081,  -3.14100003,   3.31948447
      6,   1.57480311,  -2.75590563,   3.31948447
      7,  0.917186916,  -2.75590563,   3.61162996
      8,    1.1811024,  -3.14960623,   3.31948447
      9,  -1.56415355,  -2.75590563,   2.38026738
     10,  -1.49111044,  -3.14960623,   1.99340177
     11,  -1.88481128,  -2.75590563,   1.99340177
     12,  -3.46044707,  -2.45339704,    1.1811024
     13,  -2.67304564,  -2.45339704,    1.1811024
     14,  -2.67304564,  -2.45339704,           0.
     15,  -3.46044707,  -2.45339704,           0.
     16,  -1.88481128,  -2.75590563,    1.1811024
     17,  -1.49111044,  -3.14960623,    1.1811024
     18,  -3.74015737,  -3.14960623,  0.787401557
     19,   -3.9370079,  -2.95275593,  0.787401557
     20,   -3.9370079,  -2.95275593,           0.
** ... 20115 like lines cut
*Element, type=C3D10
    1,  1735,  1736,  1737,  1738,  2962,  2961,  2960,  2964,  2963,  2965
    2,  1735,  1739,  1740,  1741,  2968,  2967,  2966,  2970,  2969,  2971
    3,  1735,  1742,  1743,  1738,  2974,  2973,  2972,  2964,  2975,  2976
    4,  1735,  1737,  1744,  1738,  2960,  2978,  2977,  2964,  2965,  2979
    5,  1735,  1737,  1741,  1744,  2960,  2980,  2970,  2977,  2978,  2981
    6,  1735,  1745,  1742,  1741,  2983,  2982,  2974,  2970,  2984,  2985
    7,  1746,  1747,  1748,  1749,  2988,  2987,  2986,  2990,  2989,  2991
    8,  1746,  1750,  1747,  1751,  2993,  2992,  2988,  2995,  2994,  2996
    9,  1746,  1752,  1747,  1750,  2998,  2997,  2988,  2993,  2999,  2992
   10,  1746,  1753,  1754,  1755,  3002,  3001,  3000,  3004,  3003,  3005
   11,  1756,  1757,  1758,  1759,  3008,  3007,  3006,  3010,  3009,  3011
   12,   347,  1760,  1083,  1065,  3014,  3013,  3012,  3016,  3015,  3017
   13,  1761,  1738,  1758,  1759,  3020,  3019,  3018,  3022,  3021,  3011
   14,  1761,  1762,  1759,  1763,  3024,  3023,  3022,  3026,  3025,  3027
   15,  1761,  1763,  1759,  1757,  3026,  3027,  3022,  3029,  3028,  3009
   16,  1761,  1764,  1757,  1765,  3031,  3030,  3029,  3033,  3032,  3034
   17,  1761,  1762,  1766,  1759,  3024,  3036,  3035,  3022,  3023,  3037
   18,  1767,  1768,  1769,  1770,  3040,  3039,  3038,  3042,  3041,  3043
   19,  1767,  1771,  1772,  1773,  3046,  3045,  3044,  3048,  3047,  3049
   20,  1767,  1774,  1775,  1776,  3052,  3051,  3050,  3054,  3053,  3055
** ... 12454 like lines cut
*Nset, nset=Set-1, generate
     1,  20135,      1
*Elset, elset=Set-1, generate
     1,  12474,      1
** Section: Section-1
*Solid Section, elset=Set-1, material=SS316
,
*End Part
**  
**
** ASSEMBLY
**
*Assembly, name=Assembly
**  
*Instance, name=polemount_2Jeremiah-1-1, part=polemount_2Jeremiah-1
*End Instance
**  
*Nset, nset=Set-1, instance=polemount_2Jeremiah-1-1
    12,    13,    14,    15,    30,    31,    32,    33,    45,    46,    84,    85,   153,   154,   155,   156
   157,   158,   159,   160,   161,   162,   163,   164,   165,   166,   245,   246,   247,   248,   249,   250
   254,   255,   256,   293,   294,   295,   296,   297,   450,   451,   452,   453,   454,   455,   456,   457
   683,   684,   685,   686,   687,   688,   886,   887,   888,  1193,  1194,  1195,  1196,  1197,  1198,  3486
  6196,  7462,  7466,  7467,  8244,  9788,  9790,  9792,  9899,  9901,  9903, 10145, 10184, 10348, 11074, 11168
 11172, 11210, 11724, 11734, 11738, 11739, 11778, 12038, 12049, 12050, 12051, 12102, 12104, 12105, 12190, 12191
 12193, 12213, 12215, 12216, 12229, 12236, 12237, 12270, 12272, 12274, 12275, 12285, 12297, 12353, 12436, 12438
 12440, 12453, 12454, 12458, 12465, 12485, 12487, 12503, 12504, 12506, 12507, 12513, 12653, 12733, 12753, 12754
 12755, 12759, 12798, 12897, 13250, 13252, 13254, 13275, 13277, 13765, 13802, 13804, 13806, 13931, 13967, 13969
 13971, 13973, 14081, 14085, 14086, 14128, 14129, 14130, 14170, 14247, 14248, 14253, 14254, 14255, 14355, 14477
 14479, 14480, 14675, 14831, 14881, 14882, 14884, 15098, 15409, 16054, 16056, 16084, 16187, 16335, 16379, 16380
 16382, 16383, 16412, 16413, 16415, 16416, 16425, 16442, 16443, 16463, 16464, 18472, 18474, 18577, 19282, 19332
 19359, 19364, 19367, 19370, 19381, 19387, 19393, 19395, 19408, 19409, 19412, 19413, 19414
*Elset, elset=Set-1, instance=polemount_2Jeremiah-1-1
  1309,  2331,  2378,  2976,  3090,  3115,  3146,  3156,  3157,  3163,  3166,  3171,  3175,  3178,  3179,  3189
  3202,  3208,  3241,  3246,  3248,  3252,  3261,  3268,  3271,  3272,  3389,  3392,  3394,  3409,  3423,  3424
  3447,  3594,  3835,  3908,  3962,  3985,  4008,  4049,  4057,  4171,  4388,  4513,  4679,  5107,  5127,  5287
  5317,  5320,  5340,  5342,  5343,  5355,  5356,  5368,  5374,  6418,  7532,  7792,  8193,  9160,  9203,  9209
  9214,  9217,  9243,  9246,  9263,  9264,  9274,  9278,  9279,  9292,  9492, 10104, 10105, 10964, 11635, 12111
*Nset, nset=Set-2, instance=polemount_2Jeremiah-1-1
    12,    13,    14,    15,    30,    31,    32,    33,    45,    46,    84,    85,   153,   154,   155,   156
   157,   158,   159,   160,   161,   162,   163,   164,   165,   166,   245,   246,   247,   248,   249,   250
   251,   252,   253,   254,   255,   256,   293,   294,   295,   296,   297,   298,   299,   300,   450,   451
   452,   453,   454,   455,   456,   457,   683,   684,   685,   686,   687,   688,   886,   887,   888,   889
   890,   891,  1193,  1194,  1195,  1196,  1197,  1198,  3486,  6196,  7462,  7466,  7467,  8244,  9788,  9790
  9792,  9899,  9901,  9903, 10145, 10184, 10348, 10350, 10352, 11074, 11168, 11172, 11210, 11724, 11734, 11738
 11739, 11778, 12038, 12049, 12050, 12051, 12102, 12104, 12105, 12190, 12191, 12193, 12213, 12215, 12216, 12229
 12236, 12237, 12270, 12272, 12274, 12275, 12285, 12297, 12353, 12436, 12438, 12440, 12453, 12454, 12458, 12465
 12485, 12487, 12503, 12504, 12506, 12507, 12513, 12653, 12733, 12753, 12754, 12755, 12759, 12798, 12897, 13250
 13252, 13254, 13275, 13277, 13765, 13802, 13804, 13806, 13825, 13931, 13967, 13969, 13971, 13973, 14081, 14085
 14086, 14128, 14129, 14130, 14170, 14247, 14248, 14253, 14254, 14255, 14278, 14280, 14282, 14284, 14294, 14299
 14300, 14326, 14328, 14329, 14355, 14357, 14477, 14479, 14480, 14675, 14831, 14881, 14882, 14884, 15098, 15113
 15409, 15482, 15483, 16054, 16056, 16084, 16187, 16335, 16379, 16380, 16382, 16383, 16412, 16413, 16415, 16416
 16425, 16442, 16443, 16463, 16464, 16465, 16480, 16486, 16488, 16489, 18472, 18474, 18483, 18577, 18818, 18820
 19282, 19332, 19359, 19364, 19367, 19370, 19381, 19387, 19393, 19395, 19408, 19409, 19412, 19413, 19414, 19786
*Elset, elset=Set-2, instance=polemount_2Jeremiah-1-1
  1309,  2331,  2378,  2509,  2976,  3090,  3115,  3146,  3156,  3157,  3163,  3166,  3171,  3175,  3178,  3179
  3189,  3202,  3208,  3241,  3246,  3248,  3252,  3261,  3268,  3271,  3272,  3389,  3392,  3394,  3409,  3423
  3424,  3447,  3594,  3835,  3908,  3962,  3985,  4008,  4049,  4057,  4075,  4086,  4099,  4112,  4171,  4388
  4513,  4679,  4736,  5107,  5127,  5287,  5317,  5320,  5340,  5342,  5343,  5355,  5356,  5368,  5369,  5374
  5376,  5392,  6418,  7532,  7550,  7792,  8064,  8067,  8074,  8193,  9160,  9203,  9209,  9214,  9217,  9243
  9246,  9263,  9264,  9274,  9278,  9279,  9292,  9492,  9968, 10104, 10105, 10448, 10678, 10964, 11635, 12111
*Elset, elset=_Surf-1_S3, internal, instance=polemount_2Jeremiah-1-1
   430,   661,   719,   746,   809,   862,  1075,  1358,  1456,  1459,  1566,  1588,  1854,  1860,  1954,  2048
  2202,  2346,  2403,  2454,  2550,  2617,  2663,  2811,  2944,  2974,  3018,  3089,  3721,  3812,  4268,  4285
  4719,  4856,  4902,  5012,  5211,  5336,  5471,  5606,  5973,  6149,  6446,  6900,  6909,  7539,  7923,  8769
  8789,  8869,  8919,  9149,  9872,  9951,  9966, 10021, 10022, 10025, 10135, 10171, 10370, 10392, 10727, 10738
 11119, 11131, 11601, 12250, 12263, 12384, 12447, 12453
*Elset, elset=_Surf-1_S1, internal, instance=polemount_2Jeremiah-1-1
  1091,  1324,  1506,  1719,  2603,  9936,  9962,  9997, 10075, 10168, 10333, 10403, 10674, 10845, 11073, 11143
 11176, 11177, 11455, 12390
*Elset, elset=_Surf-1_S2, internal, instance=polemount_2Jeremiah-1-1
  1781,  1923,  1961,  2044,  3239,  3668, 10213, 10310, 10620, 10681, 10775, 11456
*Elset, elset=_Surf-1_S4, internal, instance=polemount_2Jeremiah-1-1
  2156,  2940,  7922, 10078, 10266, 10271, 10318, 10588, 10870, 11116, 11137, 11173, 12410
*Surface, type=ELEMENT, name=Surf-1
_Surf-1_S3, S3
_Surf-1_S1, S1
_Surf-1_S2, S2
_Surf-1_S4, S4
*Elset, elset=_Surf-2_S2, internal, instance=polemount_2Jeremiah-1-1
   157,  2438,  2603,  5684,  5780,  8026,  8496, 10058, 10168, 10296, 10423, 10621
*Elset, elset=_Surf-2_S3, internal, instance=polemount_2Jeremiah-1-1
   659,   792,   972,  1408,  1719,  2434,  2725,  2879,  2946,  3524,  3668,  4043,  4044,  4499,  5257,  5266
  5451,  5521,  5707,  5756,  5798,  6850,  6851,  6938,  7069,  7417,  7779,  7970,  7989,  8149,  8376,  8391
  8546,  8609,  8631,  8660,  8732,  9070,  9163,  9848,  9854,  9910,  9911, 10011, 10057, 10075, 10078, 10113
 10117, 10120, 10132, 10145, 10159, 10172, 10195, 10213, 10215, 10231, 10242, 10247, 10254, 10257, 10277, 10284
 10307, 10318, 10320, 10321, 10332, 10334, 10342, 10349, 10352, 10373, 10391, 10407, 10421, 10435, 10438, 10475
 10511, 10529, 10530, 10537, 10538, 10539, 10550, 10565, 10577, 10588, 10589, 10590, 10600, 10608, 10612, 10615
 10632, 10633, 10878, 10881, 10917, 11029, 11120, 11176, 11202, 11231, 11333, 11754, 11799, 11800, 11840, 12006
 12257, 12276, 12444, 12472
*Elset, elset=_Surf-2_S1, internal, instance=polemount_2Jeremiah-1-1
  1863,  7115,  9043,  9224, 10237, 10266, 10430, 10620, 10932
*Elset, elset=_Surf-2_S4, internal, instance=polemount_2Jeremiah-1-1
  7255, 10100, 10261, 10298, 10403, 10432, 10571
*Surface, type=ELEMENT, name=Surf-2
_Surf-2_S2, S2
_Surf-2_S3, S3
_Surf-2_S4, S4
_Surf-2_S1, S1
*Elset, elset=_Surf-3_S2, internal, instance=polemount_2Jeremiah-1-1
   157,  2438,  2603,  5684,  5780,  8026,  8496, 10058, 10168, 10296, 10423, 10621
*Elset, elset=_Surf-3_S3, internal, instance=polemount_2Jeremiah-1-1
   659,   792,   972,  1408,  1719,  2434,  2725,  2879,  2946,  3524,  3668,  4043,  4044,  4499,  5257,  5266
  5451,  5521,  5707,  5756,  5798,  6850,  6851,  6938,  7069,  7417,  7779,  7970,  7989,  8149,  8376,  8391
  8546,  8609,  8631,  8660,  8732,  9070,  9163,  9848,  9854,  9910,  9911, 10011, 10057, 10075, 10078, 10113
 10117, 10120, 10132, 10145, 10159, 10172, 10195, 10213, 10215, 10231, 10242, 10247, 10254, 10257, 10277, 10284
 10307, 10318, 10320, 10321, 10332, 10334, 10342, 10349, 10352, 10373, 10391, 10407, 10421, 10435, 10438, 10475
 10511, 10529, 10530, 10537, 10538, 10539, 10550, 10565, 10577, 10588, 10589, 10590, 10600, 10608, 10612, 10615
 10632, 10633, 10878, 10881, 10917, 11029, 11120, 11176, 11202, 11231, 11333, 11754, 11799, 11800, 11840, 12006
 12257, 12276, 12444, 12472
*Elset, elset=_Surf-3_S1, internal, instance=polemount_2Jeremiah-1-1
  1863,  7115,  9043,  9224, 10237, 10266, 10430, 10620, 10932
*Elset, elset=_Surf-3_S4, internal, instance=polemount_2Jeremiah-1-1
  7255, 10100, 10261, 10298, 10403, 10432, 10571
*Surface, type=ELEMENT, name=Surf-3
_Surf-3_S2, S2
_Surf-3_S3, S3
_Surf-3_S4, S4
_Surf-3_S1, S1
*Orientation, name=TorqueAxis, system=CYLINDRICAL
3.74015748031496, 1.46011205901731e-08, 3.93700785644295, 4.74015748031496, 1.46011205901731e-08, 3.93700785644295
1, 0.
*End Assembly
** 
** MATERIALS
** 
*Material, name=SS316
*Density
7870.,
*Elastic
 1.9e+08, 0.265
** 
** BOUNDARY CONDITIONS
** 
** Name: BC-1 Type: Displacement/Rotation
*Boundary
Set-2, 1, 1
Set-2, 2, 2
Set-2, 3, 3
Set-2, 4, 4
Set-2, 5, 5
Set-2, 6, 6
** ----------------------------------------------------------------
** 
** STEP: Step-1
** 
*Step, name=Step-1, nlgeom=NO
TorqueFaceLoading
*Static
1., 1., 1e-05, 1.
** 
** LOADS
** 
** Name: FaceLoad   Type: Pressure
*Dsload
Surf-1, P, 501.169
** Name: TorqueLoad   Type: Surface traction
*Dsload, orientation=TorqueAxis
Surf-3, TRSHR, 6000., 0., -0.707107, 0.707107
** 
** OUTPUT REQUESTS
** 
*Restart, write, frequency=0
** 
** FIELD OUTPUT: F-Output-1
** 
*Output, field, variable=PRESELECT
** 
** HISTORY OUTPUT: H-Output-1
** 
*Output, history, variable=PRESELECT
*End Step
